<?xml version="1.0" encoding="UTF-8"?>
<!DOCTYPE network SYSTEM "http://www.matsim.org/files/dtd/network_v2.dtd">
<network>

<!-- ====================================================================== -->

	<nodes>
		<node id="100120" x="427727.1000009737" y="4425500.100103454" >
		</node>
		<node id="100140" x="427730.300000975" y="4430925.400103489" >
		</node>
		<node id="100155" x="427732.5000009757" y="4431313.200103491" >
		</node>
		<node id="101045" x="427882.1000009711" y="4425601.700103454" >
		</node>
		<node id="101477" x="427950.0000009689" y="4425487.600103455" >
		</node>
		<node id="101724" x="428011.280000968" y="4426113.990103457" >
		</node>
		<node id="101735" x="428015.46000096994" y="4426915.390103464" >
		</node>
		<node id="101740" x="428016.87000097014" y="4425520.7701034555" >
		</node>
		<node id="101743" x="428017.6000009697" y="4427719.700103468" >
		</node>
		<node id="101746" x="428019.1000009691" y="4428523.500103475" >
		</node>
		<node id="101752" x="428021.06000097096" y="4429330.520103478" >
		</node>
		<node id="101754" x="428021.7300009723" y="4429731.60010348" >
		</node>
		<node id="101772" x="428028.01000097167" y="4430927.850103489" >
		</node>
		<node id="101775" x="428028.8400009712" y="4431507.340103493" >
		</node>
		<node id="101780" x="428029.6000009707" y="4431312.400103491" >
		</node>
		<node id="102663" x="428240.600000965" y="4426113.100103458" >
		</node>
		<node id="102901" x="428304.6700009666" y="4427722.3601034675" >
		</node>
		<node id="103058" x="428335.48000096733" y="4428526.110103473" >
		</node>
		<node id="103508" x="428439.63000096614" y="4429736.440103483" >
		</node>
		<node id="103797" x="428507.6000009635" y="4426113.100103457" >
		</node>
		<node id="104545" x="428689.0000009619" y="4428938.300103477" >
		</node>
		<node id="104580" x="428694.6000009624" y="4429336.700103479" >
		</node>
		<node id="104583" x="428695.5000009625" y="4429728.290103481" >
		</node>
		<node id="104716" x="428729.47000096" y="4425963.210103458" >
		</node>
		<node id="104994" x="428812.1700009608" y="4430931.240103489" >
		</node>
		<node id="105002" x="428816.72000095923" y="4426113.250103459" >
		</node>
		<node id="105004" x="428817.2500009596" y="4425964.630103458" >
		</node>
		<node id="105064" x="428838.6000009593" y="4426913.5001034625" >
		</node>
		<node id="105104" x="428852.60000096046" y="4430139.000103485" >
		</node>
		<node id="105245" x="428882.10000095743" y="4425922.8001034595" >
		</node>
		<node id="105431" x="428938.77000095707" y="4428933.140103478" >
		</node>
		<node id="105432" x="428938.77000095835" y="4428940.560103478" >
		</node>
		<node id="105433" x="428939.0200009581" y="4429337.9101034785" >
		</node>
		<node id="105510" x="428961.90000095736" y="4428534.360103472" >
		</node>
		<node id="105674" x="429018.16000095644" y="4426114.380103458" >
		</node>
		<node id="106318" x="429200.300000953" y="4423054.80010344" >
		</node>
		<node id="106374" x="429218.7100009555" y="4428941.980103478" >
		</node>
		<node id="106375" x="429219.30000095523" y="4429181.9501034785" >
		</node>
		<node id="106398" x="429226.8000009543" y="4427725.400103468" >
		</node>
		<node id="106402" x="429228.10000095377" y="4427330.300103466" >
		</node>
		<node id="106595" x="429284.6400009511" y="4426116.6301034605" >
		</node>
		<node id="106661" x="429297.9000009534" y="4426123.100103458" >
		</node>
		<node id="106878" x="429358.8300009519" y="4424522.900103449" >
		</node>
		<node id="107236" x="429420.9300009521" y="4428944.840103475" >
		</node>
		<node id="107243" x="429422.4000009529" y="4429143.090103478" >
		</node>
		<node id="107835" x="429556.71000094945" y="4430147.010103484" >
		</node>
		<node id="107973" x="429605.28000094753" y="4427326.280103465" >
		</node>
		<node id="108008" x="429613.6100009498" y="4427715.680103468" >
		</node>
		<node id="108018" x="429615.0200009489" y="4427730.68010347" >
		</node>
		<node id="108051" x="429623.12000095" y="4428537.810103474" >
		</node>
		<node id="108053" x="429623.6000009499" y="4428949.400103477" >
		</node>
		<node id="108055" x="429623.9100009496" y="4429345.850103477" >
		</node>
		<node id="108073" x="429627.910000948" y="4430048.6401034845" >
		</node>
		<node id="108098" x="429637.040000948" y="4424384.3401034465" >
		</node>
		<node id="108106" x="429640.5100009474" y="4424548.300103448" >
		</node>
		<node id="108124" x="429646.10000094865" y="4426292.10010346" >
		</node>
		<node id="108213" x="429681.80000094476" y="4424860.3701034505" >
		</node>
		<node id="108215" x="429681.91000094754" y="4424547.030103448" >
		</node>
		<node id="108216" x="429681.9900009482" y="4424709.43010345" >
		</node>
		<node id="108217" x="429682.35000094754" y="4424625.060103449" >
		</node>
		<node id="108271" x="429698.5000009451" y="4422868.600103438" >
		</node>
		<node id="108401" x="429742.99000094656" y="4423786.460103445" >
		</node>
		<node id="108410" x="429745.690000947" y="4423831.330103445" >
		</node>
		<node id="108411" x="429745.9000009469" y="4423096.200103438" >
		</node>
		<node id="108419" x="429751.8000009438" y="4424412.790103447" >
		</node>
		<node id="108423" x="429752.66000094666" y="4423910.450103444" >
		</node>
		<node id="108469" x="429772.0200009457" y="4424772.270103451" >
		</node>
		<node id="108487" x="429780.30000094505" y="4422850.700103437" >
		</node>
		<node id="108507" x="429785.80000094534" y="4424480.430103448" >
		</node>
		<node id="108513" x="429789.06000094535" y="4422849.200103436" >
		</node>
		<node id="108523" x="429791.13000094565" y="4424529.71010345" >
		</node>
		<node id="108535" x="429797.090000946" y="4424744.530103451" >
		</node>
		<node id="108562" x="429807.5000009426" y="4423048.000103438" >
		</node>
		<node id="108586" x="429818.3900009458" y="4424612.610103448" >
		</node>
		<node id="108622" x="429826.2100009453" y="4424860.75010345" >
		</node>
		<node id="108629" x="429828.10000094306" y="4422842.500103439" >
		</node>
		<node id="108630" x="429828.1000009443" y="4423188.10010344" >
		</node>
		<node id="108643" x="429831.00000094506" y="4423192.500103441" >
		</node>
		<node id="108646" x="429831.5000009431" y="4422778.000103437" >
		</node>
		<node id="108667" x="429835.5800009456" y="4424384.780103448" >
		</node>
		<node id="108692" x="429840.9100009453" y="4422434.530103436" >
		</node>
		<node id="108698" x="429844.00000094494" y="4422717.500103437" >
		</node>
		<node id="108783" x="429860.30000094394" y="4422915.2001034375" >
		</node>
		<node id="108788" x="429861.58000094513" y="4424442.670103447" >
		</node>
		<node id="108796" x="429863.63000094437" y="4423762.110103444" >
		</node>
		<node id="108853" x="429874.430000944" y="4423795.510103445" >
		</node>
		<node id="108871" x="429880.4400009445" y="4422450.750103435" >
		</node>
		<node id="108888" x="429886.06000094453" y="4426232.610103459" >
		</node>
		<node id="108912" x="429889.3000009426" y="4424575.480103449" >
		</node>
		<node id="108980" x="429906.4000009444" y="4422980.40010344" >
		</node>
		<node id="108995" x="429911.4000009447" y="4424860.98010345" >
		</node>
		<node id="109002" x="429914.10000094306" y="4422768.400103437" >
		</node>
		<node id="109012" x="429916.6900009444" y="4424726.590103449" >
		</node>
		<node id="109018" x="429918.2100009439" y="4423889.940103444" >
		</node>
		<node id="109041" x="429925.91000094404" y="4423951.920103446" >
		</node>
		<node id="109099" x="429943.1000009431" y="4423150.50010344" >
		</node>
		<node id="109123" x="429949.6900009422" y="4423146.530103439" >
		</node>
		<node id="109139" x="429955.3000009438" y="4423541.600103443" >
		</node>
		<node id="109149" x="429958.71000094345" y="4422172.750103433" >
		</node>
		<node id="109157" x="429963.8300009419" y="4423876.730103443" >
		</node>
		<node id="109179" x="429972.36000094307" y="4422159.440103433" >
		</node>
		<node id="109224" x="429989.80000094045" y="4423122.400103438" >
		</node>
		<node id="109230" x="429990.560000944" y="4428259.7601034725" >
		</node>
		<node id="109238" x="429991.7800009413" y="4422415.540103433" >
		</node>
		<node id="109255" x="429996.6100009436" y="4424861.200103451" >
		</node>
		<node id="109257" x="429997.05000094115" y="4424727.690103449" >
		</node>
		<node id="109260" x="429998.2200009405" y="4424648.480103452" >
		</node>
		<node id="109261" x="429998.60000094207" y="4422664.000103436" >
		</node>
		<node id="109290" x="430005.3000009405" y="4422454.780103435" >
		</node>
		<node id="109311" x="430016.4000009421" y="4422227.590103434" >
		</node>
		<node id="109312" x="430016.79000094323" y="4423950.540103442" >
		</node>
		<node id="109314" x="430017.9000009429" y="4423768.100103443" >
		</node>
		<node id="109316" x="430018.9100009422" y="4422520.760103435" >
		</node>
		<node id="109322" x="430021.06000094063" y="4426453.08010346" >
		</node>
		<node id="109327" x="430022.07000094414" y="4426283.59010346" >
		</node>
		<node id="109331" x="430023.3000009424" y="4427329.000103468" >
		</node>
		<node id="109343" x="430027.900000944" y="4427186.200103464" >
		</node>
		<node id="109346" x="430029.4000009431" y="4422998.300103438" >
		</node>
		<node id="109363" x="430037.44000094396" y="4426730.820103463" >
		</node>
		<node id="109375" x="430041.30000094295" y="4424275.340103447" >
		</node>
		<node id="109391" x="430045.97000094247" y="4424409.830103447" >
		</node>
		<node id="109415" x="430053.08000094234" y="4422194.500103435" >
		</node>
		<node id="109436" x="430058.10000094166" y="4423058.200103438" >
		</node>
		<node id="109444" x="430061.1000009421" y="4423232.500103438" >
		</node>
		<node id="109448" x="430066.6000009409" y="4422757.500103436" >
		</node>
		<node id="109450" x="430068.60000094125" y="4424329.000103447" >
		</node>
		<node id="109454" x="430069.56000094186" y="4424166.8401034465" >
		</node>
		<node id="109475" x="430077.90000093984" y="4422873.000103438" >
		</node>
		<node id="109479" x="430078.9000009404" y="4423006.40010344" >
		</node>
		<node id="109488" x="430082.4400009427" y="4424476.110103446" >
		</node>
		<node id="109493" x="430084.8600009413" y="4422401.190103434" >
		</node>
		<node id="109509" x="430091.9400009421" y="4422161.570103433" >
		</node>
		<node id="109606" x="430124.06000094116" y="4424437.610103446" >
		</node>
		<node id="109607" x="430124.6900009416" y="4424541.070103448" >
		</node>
		<node id="109639" x="430134.4000009416" y="4423123.600103438" >
		</node>
		<node id="109651" x="430136.8000009409" y="4422642.700103436" >
		</node>
		<node id="109667" x="430142.60000094085" y="4422591.000103436" >
		</node>
		<node id="109673" x="430146.1500009414" y="4424146.250103447" >
		</node>
		<node id="109708" x="430156.5800009416" y="4424219.400103447" >
		</node>
		<node id="109712" x="430158.40000093885" y="4422394.140103437" >
		</node>
		<node id="109716" x="430162.0400009402" y="4422358.420103434" >
		</node>
		<node id="109734" x="430168.7700009404" y="4424650.65010345" >
		</node>
		<node id="109735" x="430168.8500009406" y="4424510.8301034495" >
		</node>
		<node id="109748" x="430174.0900009377" y="4423248.64010344" >
		</node>
		<node id="109751" x="430175.18000094086" y="4424726.850103449" >
		</node>
		<node id="109752" x="430175.1900009412" y="4424413.870103447" >
		</node>
		<node id="109761" x="430178.7800009416" y="4424522.260103449" >
		</node>
		<node id="109826" x="430199.99000094074" y="4424304.050103448" >
		</node>
		<node id="109902" x="430225.2200009379" y="4424560.390103449" >
		</node>
		<node id="109906" x="430226.67000094004" y="4424726.580103449" >
		</node>
		<node id="109921" x="430231.10000094096" y="4426485.60010346" >
		</node>
		<node id="109934" x="430236.5000009394" y="4421895.3001034325" >
		</node>
		<node id="109942" x="430239.4400009403" y="4424380.970103447" >
		</node>
		<node id="110003" x="430254.17000093934" y="4422539.070103438" >
		</node>
		<node id="110019" x="430257.5800009393" y="4424218.590103446" >
		</node>
		<node id="110082" x="430277.59000093705" y="4424266.270103445" >
		</node>
		<node id="110134" x="430298.60000093887" y="4428548.600103475" >
		</node>
		<node id="110136" x="430299.2900009384" y="4424436.080103448" >
		</node>
		<node id="110288" x="430334.8000009391" y="4429354.800103479" >
		</node>
		<node id="110302" x="430336.9100009386" y="4424135.1701034475" >
		</node>
		<node id="110366" x="430348.2500009389" y="4424481.720103449" >
		</node>
		<node id="110417" x="430360.05000093847" y="4424243.910103446" >
		</node>
		<node id="110453" x="430370.5200009382" y="4424326.430103446" >
		</node>
		<node id="110615" x="430434.4000009385" y="4426464.50010346" >
		</node>
		<node id="110777" x="430490.8000009364" y="4424497.000103447" >
		</node>
		<node id="110962" x="430568.7200009369" y="4428640.940103473" >
		</node>
		<node id="110985" x="430576.99000093393" y="4426421.420103459" >
		</node>
		<node id="111051" x="430603.89000093547" y="4425348.370103451" >
		</node>
		<node id="111118" x="430623.80000093376" y="4421255.800103428" >
		</node>
		<node id="111181" x="430651.2300009356" y="4428539.020103475" >
		</node>
		<node id="111228" x="430667.050000934" y="4422963.120103437" >
		</node>
		<node id="111318" x="430700.6700009304" y="4421385.830103428" >
		</node>
		<node id="111424" x="430733.0900009322" y="4421360.160103428" >
		</node>
		<node id="111563" x="430778.84000093123" y="4422962.4901034385" >
		</node>
		<node id="111588" x="430790.5800009319" y="4422837.580103437" >
		</node>
		<node id="111630" x="430804.60000093107" y="4421395.700103426" >
		</node>
		<node id="111672" x="430820.2100009315" y="4423082.370103439" >
		</node>
		<node id="111693" x="430824.7000009293" y="4422728.450103437" >
		</node>
		<node id="111720" x="430836.44000093214" y="4423049.540103437" >
		</node>
		<node id="111732" x="430842.1700009319" y="4426265.270103461" >
		</node>
		<node id="111737" x="430843.85000093153" y="4422962.13010344" >
		</node>
		<node id="111774" x="430854.1100009316" y="4427191.0801034635" >
		</node>
		<node id="111805" x="430863.7900009326" y="4426416.10010346" >
		</node>
		<node id="112058" x="430954.4000009303" y="4423065.77010344" >
		</node>
		<node id="112063" x="430955.74000092875" y="4423110.96010344" >
		</node>
		<node id="112206" x="431017.7000009299" y="4423059.4501034375" >
		</node>
		<node id="112207" x="431018.18000092916" y="4423104.930103439" >
		</node>
		<node id="112296" x="431053.10000092787" y="4422136.800103434" >
		</node>
		<node id="112322" x="431067.3000009281" y="4422752.000103437" >
		</node>
		<node id="112387" x="431085.31000092835" y="4425306.270103453" >
		</node>
		<node id="112391" x="431086.58000092837" y="4423012.47010344" >
		</node>
		<node id="112431" x="431099.5000009277" y="4423012.250103438" >
		</node>
		<node id="112433" x="431099.7300009283" y="4423057.980103439" >
		</node>
		<node id="112510" x="431132.50000092917" y="4428581.480103475" >
		</node>
		<node id="112717" x="431208.8700009261" y="4422203.220103433" >
		</node>
		<node id="112725" x="431213.300000926" y="4422269.500103434" >
		</node>
		<node id="112744" x="431221.1600009287" y="4428445.8001034735" >
		</node>
		<node id="112792" x="431242.9900009284" y="4428558.390103475" >
		</node>
		<node id="112796" x="431244.6200009262" y="4423009.790103437" >
		</node>
		<node id="112797" x="431245.0300009266" y="4423060.100103438" >
		</node>
		<node id="112798" x="431245.55000092654" y="4423123.600103441" >
		</node>
		<node id="112800" x="431246.50000092614" y="4422908.800103438" >
		</node>
		<node id="113075" x="431367.1000009236" y="4422632.500103437" >
		</node>
		<node id="113117" x="431392.1200009276" y="4433411.550103505" >
		</node>
		<node id="113135" x="431398.1700009272" y="4432606.9901035" >
		</node>
		<node id="113170" x="431410.2300009255" y="4425881.6401034575" >
		</node>
		<node id="113181" x="431416.1000009248" y="4427257.2001034655" >
		</node>
		<node id="113257" x="431447.1600009283" y="4435897.860103521" >
		</node>
		<node id="113309" x="431466.95000092295" y="4427471.470103468" >
		</node>
		<node id="113351" x="431484.800000923" y="4422554.600103437" >
		</node>
		<node id="113353" x="431487.000000927" y="4434212.200103509" >
		</node>
		<node id="113422" x="431515.1100009233" y="4423900.620103444" >
		</node>
		<node id="113560" x="431556.61000092566" y="4433410.490103504" >
		</node>
		<node id="113571" x="431559.80000092153" y="4422502.900103437" >
		</node>
		<node id="113614" x="431576.54000092275" y="4423931.210103445" >
		</node>
		<node id="113618" x="431578.4000009222" y="4422829.80010344" >
		</node>
		<node id="113662" x="431593.3900009217" y="4423937.420103444" >
		</node>
		<node id="113720" x="431612.3800009209" y="4422830.780103436" >
		</node>
		<node id="113774" x="431627.7900009213" y="4423957.320103444" >
		</node>
		<node id="113782" x="431630.10000092105" y="4422911.500103438" >
		</node>
		<node id="113812" x="431640.54000092135" y="4423964.710103445" >
		</node>
		<node id="113821" x="431642.99000092334" y="4429378.470103481" >
		</node>
		<node id="113851" x="431651.74000092084" y="4422999.590103438" >
		</node>
		<node id="113861" x="431654.00000092067" y="4422888.900103438" >
		</node>
		<node id="113903" x="431669.4000009205" y="4422830.300103437" >
		</node>
		<node id="113996" x="431697.60000092257" y="4432602.2001035" >
		</node>
		<node id="114046" x="431712.40000091994" y="4422884.15010344" >
		</node>
		<node id="114103" x="431731.5000009237" y="4435893.400103522" >
		</node>
		<node id="114118" x="431736.79000092036" y="4425661.240103456" >
		</node>
		<node id="114155" x="431756.4000009236" y="4434222.900103509" >
		</node>
		<node id="114172" x="431764.60000092344" y="4435893.000103521" >
		</node>
		<node id="114184" x="431768.1000009233" y="4436083.700103521" >
		</node>
		<node id="114397" x="431856.6000009158" y="4424498.90010345" >
		</node>
		<node id="114398" x="431856.7900009185" y="4424714.71010345" >
		</node>
		<node id="114456" x="431875.3600009185" y="4423096.770103439" >
		</node>
		<node id="114596" x="431921.9000009185" y="4425310.300103454" >
		</node>
		<node id="114636" x="431934.90000091924" y="4427160.800103466" >
		</node>
		<node id="114667" x="431946.6000009184" y="4427198.300103465" >
		</node>
		<node id="114673" x="431949.500000918" y="4426578.700103459" >
		</node>
		<node id="114675" x="431949.9700009182" y="4426743.510103463" >
		</node>
		<node id="114677" x="431950.10000091745" y="4426490.90010346" >
		</node>
		<node id="114679" x="431950.65000091906" y="4427565.890103468" >
		</node>
		<node id="114692" x="431955.60000091756" y="4426806.700103462" >
		</node>
		<node id="114835" x="431993.40000092087" y="4435892.50010352" >
		</node>
		<node id="114839" x="431995.00000091747" y="4426365.20010346" >
		</node>
		<node id="114892" x="432015.9900009163" y="4423016.160103438" >
		</node>
		<node id="114902" x="432018.900000916" y="4426251.60010346" >
		</node>
		<node id="114908" x="432019.7100009144" y="4422947.300103438" >
		</node>
		<node id="114909" x="432020.0000009198" y="4434222.20010351" >
		</node>
		<node id="114926" x="432031.10000091884" y="4433412.100103504" >
		</node>
		<node id="114945" x="432038.5300009146" y="4423098.840103437" >
		</node>
		<node id="114959" x="432044.22000091616" y="4424960.300103451" >
		</node>
		<node id="114963" x="432048.60000091547" y="4424497.5001034485" >
		</node>
		<node id="114965" x="432048.74000091513" y="4423177.780103439" >
		</node>
		<node id="114966" x="432049.1000009162" y="4425308.800103454" >
		</node>
		<node id="114969" x="432050.8100009153" y="4424142.040103445" >
		</node>
		<node id="114971" x="432051.60000091634" y="4425545.800103457" >
		</node>
		<node id="114982" x="432057.00000091625" y="4426577.000103462" >
		</node>
		<node id="114983" x="432057.1000009165" y="4426493.5001034625" >
		</node>
		<node id="114985" x="432058.0000009168" y="4426260.300103462" >
		</node>
		<node id="114990" x="432059.9500009143" y="4423987.160103445" >
		</node>
		<node id="114993" x="432060.9000009166" y="4426366.500103462" >
		</node>
		<node id="114995" x="432062.0000009159" y="4425821.700103456" >
		</node>
		<node id="114998" x="432062.60000091477" y="4425440.4001034545" >
		</node>
		<node id="115031" x="432079.57000091346" y="4423149.640103442" >
		</node>
		<node id="115035" x="432084.10000091663" y="4432599.700103499" >
		</node>
		<node id="115059" x="432092.8000009146" y="4423065.550103441" >
		</node>
		<node id="115069" x="432097.1000009152" y="4425544.800103457" >
		</node>
		<node id="115075" x="432098.6000009158" y="4425488.400103455" >
		</node>
		<node id="115084" x="432103.300000916" y="4426676.700103461" >
		</node>
		<node id="115143" x="432122.5500009175" y="4431372.510103492" >
		</node>
		<node id="115184" x="432138.3000009155" y="4426753.800103462" >
		</node>
		<node id="115188" x="432139.50000091526" y="4426833.100103464" >
		</node>
		<node id="115203" x="432144.54000091506" y="4426915.960103463" >
		</node>
		<node id="115204" x="432144.600000915" y="4426365.60010346" >
		</node>
		<node id="115205" x="432145.10000091477" y="4426572.300103461" >
		</node>
		<node id="115206" x="432146.0000009155" y="4426138.600103457" >
		</node>
		<node id="115232" x="432158.7000009124" y="4423236.940103439" >
		</node>
		<node id="115233" x="432158.85000091355" y="4425384.670103453" >
		</node>
		<node id="115245" x="432164.3600009171" y="4430238.650103486" >
		</node>
		<node id="115279" x="432187.40000091266" y="4425542.300103457" >
		</node>
		<node id="115284" x="432189.7700009133" y="4423937.760103445" >
		</node>
		<node id="115310" x="432199.8900009135" y="4423200.05010344" >
		</node>
		<node id="115317" x="432202.5000009149" y="4426573.600103461" >
		</node>
		<node id="115328" x="432204.90000091505" y="4426676.000103462" >
		</node>
		<node id="115333" x="432207.08000091586" y="4430183.120103483" >
		</node>
		<node id="115336" x="432208.10000091454" y="4426753.5001034625" >
		</node>
		<node id="115344" x="432210.9000009154" y="4426832.600103464" >
		</node>
		<node id="115345" x="432210.90000091575" y="4427204.500103465" >
		</node>
		<node id="115351" x="432213.0700009136" y="4427723.400103469" >
		</node>
		<node id="115352" x="432213.10000091477" y="4426933.700103463" >
		</node>
		<node id="115353" x="432213.60000091407" y="4427573.500103468" >
		</node>
		<node id="115360" x="432214.80000091513" y="4427616.100103468" >
		</node>
		<node id="115375" x="432219.6900009166" y="4430450.480103487" >
		</node>
		<node id="115399" x="432226.7100009122" y="4423310.34010344" >
		</node>
		<node id="115406" x="432228.8000009139" y="4426138.700103459" >
		</node>
		<node id="115407" x="432229.3500009123" y="4423464.090103441" >
		</node>
		<node id="115421" x="432235.8000009133" y="4430774.500103489" >
		</node>
		<node id="115423" x="432236.40000091447" y="4426365.90010346" >
		</node>
		<node id="115457" x="432252.3000009133" y="4423440.560103442" >
		</node>
		<node id="115467" x="432255.100000913" y="4425905.300103459" >
		</node>
		<node id="115469" x="432256.4000009146" y="4425714.100103457" >
		</node>
		<node id="115477" x="432263.0000009129" y="4426564.600103459" >
		</node>
		<node id="115478" x="432264.5000009115" y="4426523.400103461" >
		</node>
		<node id="115480" x="432265.02000091295" y="4423271.600103441" >
		</node>
		<node id="115487" x="432267.64000091364" y="4426138.150103458" >
		</node>
		<node id="115488" x="432268.2000009145" y="4427074.060103465" >
		</node>
		<node id="115499" x="432273.10000091296" y="4426366.400103461" >
		</node>
		<node id="115510" x="432280.9000009135" y="4425355.300103455" >
		</node>
		<node id="115519" x="432283.42000091175" y="4425316.250103453" >
		</node>
		<node id="115524" x="432284.5000009135" y="4425299.500103452" >
		</node>
		<node id="115539" x="432289.00000091357" y="4425174.2001034515" >
		</node>
		<node id="115548" x="432294.31000091333" y="4426627.940103462" >
		</node>
		<node id="115550" x="432294.86000091385" y="4426727.800103462" >
		</node>
		<node id="115562" x="432298.100000915" y="4433251.400103505" >
		</node>
		<node id="115580" x="432303.6000009125" y="4424986.200103452" >
		</node>
		<node id="115585" x="432305.1400009123" y="4423386.370103439" >
		</node>
		<node id="115592" x="432308.30000091175" y="4426831.400103463" >
		</node>
		<node id="115595" x="432310.10000091325" y="4426185.500103458" >
		</node>
		<node id="115602" x="432316.90000091324" y="4426367.10010346" >
		</node>
		<node id="115606" x="432318.4300009132" y="4427092.400103466" >
		</node>
		<node id="115620" x="432325.4300009126" y="4427122.470103465" >
		</node>
		<node id="115643" x="432335.80000091414" y="4430774.000103489" >
		</node>
		<node id="115649" x="432337.1000009115" y="4424420.700103448" >
		</node>
		<node id="115653" x="432337.5000009098" y="4424495.200103447" >
		</node>
		<node id="115654" x="432337.60000091477" y="4433252.900103507" >
		</node>
		<node id="115657" x="432338.5000009155" y="4432601.300103501" >
		</node>
		<node id="115658" x="432338.500000915" y="4433411.400103506" >
		</node>
		<node id="115664" x="432339.4000009155" y="4432758.800103501" >
		</node>
		<node id="115682" x="432346.8200009116" y="4423426.180103442" >
		</node>
		<node id="115697" x="432354.4000009136" y="4426532.70010346" >
		</node>
		<node id="115703" x="432356.1000009124" y="4426481.900103461" >
		</node>
		<node id="115763" x="432374.00000091235" y="4425315.070103454" >
		</node>
		<node id="115767" x="432375.50000091444" y="4433252.700103503" >
		</node>
		<node id="115799" x="432388.0500009112" y="4423385.820103441" >
		</node>
		<node id="115829" x="432402.8000009119" y="4426369.800103461" >
		</node>
		<node id="115839" x="432407.4000009117" y="4425533.800103455" >
		</node>
		<node id="115840" x="432407.40000091336" y="4430343.900103487" >
		</node>
		<node id="115841" x="432408.0000009106" y="4425710.500103454" >
		</node>
		<node id="115842" x="432408.0000009117" y="4425900.000103456" >
		</node>
		<node id="115843" x="432408.0000009117" y="4426078.400103459" >
		</node>
		<node id="115845" x="432409.8000009118" y="4425351.100103454" >
		</node>
		<node id="115848" x="432411.4000009122" y="4425172.400103453" >
		</node>
		<node id="115881" x="432420.1300009105" y="4423261.12010344" >
		</node>
		<node id="115884" x="432420.970000912" y="4426998.480103465" >
		</node>
		<node id="115895" x="432425.6800009085" y="4423484.170103443" >
		</node>
		<node id="115925" x="432442.4000009124" y="4426533.900103461" >
		</node>
		<node id="115931" x="432443.6000009113" y="4426365.60010346" >
		</node>
		<node id="115933" x="432445.50000091037" y="4424493.800103451" >
		</node>
		<node id="115939" x="432448.10000091005" y="4424625.30010345" >
		</node>
		<node id="115942" x="432448.60000091034" y="4424810.200103451" >
		</node>
		<node id="115952" x="432454.40000090987" y="4425170.7001034515" >
		</node>
		<node id="115953" x="432454.7400009098" y="4426725.260103462" >
		</node>
		<node id="115957" x="432456.0300009101" y="4423236.52010344" >
		</node>
		<node id="115959" x="432456.90000091074" y="4424982.100103452" >
		</node>
		<node id="115960" x="432456.9000009118" y="4424988.600103452" >
		</node>
		<node id="115964" x="432459.09000091103" y="4426627.000103462" >
		</node>
		<node id="115965" x="432459.5600009117" y="4427077.430103464" >
		</node>
		<node id="115989" x="432467.60000091064" y="4424493.500103448" >
		</node>
		<node id="115996" x="432470.07000090793" y="4423707.830103443" >
		</node>
		<node id="115999" x="432471.35000090994" y="4423437.990103441" >
		</node>
		<node id="116030" x="432483.3500009104" y="4427037.670103464" >
		</node>
		<node id="116041" x="432486.3200009115" y="4426920.010103463" >
		</node>
		<node id="116083" x="432502.44000090996" y="4423690.740103444" >
		</node>
		<node id="116107" x="432509.7000009113" y="4427130.720103465" >
		</node>
		<node id="116129" x="432518.80000091036" y="4426168.00010346" >
		</node>
		<node id="116145" x="432524.7000009098" y="4423607.170103442" >
		</node>
		<node id="116146" x="432525.4000009104" y="4426533.400103462" >
		</node>
		<node id="116169" x="432536.3000009106" y="4426726.000103462" >
		</node>
		<node id="116170" x="432536.7500009072" y="4423684.580103443" >
		</node>
		<node id="116175" x="432539.60000091034" y="4426607.100103461" >
		</node>
		<node id="116188" x="432542.97000090976" y="4427075.1201034635" >
		</node>
		<node id="116205" x="432550.4400009109" y="4426986.810103465" >
		</node>
		<node id="116216" x="432558.4300009068" y="4424329.370103446" >
		</node>
		<node id="116228" x="432564.1300009089" y="4423392.330103441" >
		</node>
		<node id="116234" x="432566.6000009094" y="4426421.900103461" >
		</node>
		<node id="116244" x="432571.9000009092" y="4424511.900103447" >
		</node>
		<node id="116245" x="432571.90000090963" y="4424588.100103448" >
		</node>
		<node id="116251" x="432573.1000009071" y="4424625.80010345" >
		</node>
		<node id="116253" x="432574.5000009088" y="4424809.5001034485" >
		</node>
		<node id="116262" x="432578.5000009093" y="4424989.000103452" >
		</node>
		<node id="116264" x="432579.2700009082" y="4423530.620103441" >
		</node>
		<node id="116265" x="432579.7000009088" y="4423834.110103443" >
		</node>
		<node id="116270" x="432581.1000009093" y="4425169.900103454" >
		</node>
		<node id="116275" x="432583.400000907" y="4425348.600103454" >
		</node>
		<node id="116281" x="432585.9000009098" y="4425528.000103455" >
		</node>
		<node id="116287" x="432588.40000091016" y="4425707.500103454" >
		</node>
		<node id="116291" x="432590.0900009092" y="4424330.3401034465" >
		</node>
		<node id="116294" x="432590.90000090975" y="4425895.900103457" >
		</node>
		<node id="116295" x="432591.00000090915" y="4426345.800103461" >
		</node>